Version 4
SHEET 1 880 680
WIRE 368 -32 368 -80
WIRE 288 16 112 16
WIRE 464 48 448 48
WIRE 544 48 464 48
WIRE 640 48 544 48
WIRE 288 80 240 80
WIRE 112 96 112 16
WIRE 544 128 544 48
WIRE 640 128 640 48
WIRE 368 144 368 128
WIRE -32 160 -32 112
WIRE 240 176 240 80
WIRE 272 176 240 176
WIRE 464 176 464 48
WIRE 464 176 352 176
WIRE 112 192 112 176
WIRE 240 192 240 176
WIRE -32 288 -32 240
WIRE 112 288 112 272
WIRE 240 288 240 256
WIRE 544 288 544 192
WIRE 640 288 640 208
FLAG 112 288 0
FLAG 240 288 0
FLAG 368 144 0
FLAG 368 -80 Vdd
FLAG -32 112 Vdd
FLAG -32 288 0
FLAG 544 288 0
FLAG 640 288 0
SYMBOL voltage 112 80 R0
WINDOW 123 36 54 Left 2
WINDOW 39 0 0 Left 2
SYMATTR InstName V1
SYMATTR Value ""
SYMATTR Value2 AC 1
SYMBOL voltage 112 176 R0
WINDOW 3 39 51 Left 2
WINDOW 123 0 0 Left 2
WINDOW 39 0 0 Left 2
SYMATTR InstName V2
SYMATTR Value 0.3
SYMBOL res 656 224 R180
WINDOW 0 36 76 Left 2
WINDOW 3 36 40 Left 2
SYMATTR InstName R1
SYMATTR Value 2.5K
SYMBOL cap 560 192 R180
WINDOW 0 24 56 Left 2
WINDOW 3 24 8 Left 2
SYMATTR InstName C1
SYMATTR Value 120p
SYMBOL coursework 368 48 R0
SYMATTR InstName X1
SYMBOL res 368 160 R90
WINDOW 0 0 56 VBottom 2
WINDOW 3 32 56 VTop 2
SYMATTR InstName R2
SYMATTR Value 1G
SYMBOL cap 224 192 R0
SYMATTR InstName C2
SYMATTR Value 1000µ
SYMBOL voltage -32 144 R0
WINDOW 123 0 0 Left 2
WINDOW 39 0 0 Left 2
SYMATTR InstName V3
SYMATTR Value 1.8
