Version 4
SHEET 1 880 680
WIRE 368 -32 368 -80
WIRE 288 16 112 16
WIRE 544 48 448 48
WIRE 640 48 544 48
WIRE 112 80 112 16
WIRE 288 80 208 80
WIRE 544 128 544 48
WIRE 640 128 640 48
WIRE 368 144 368 128
WIRE -32 160 -32 112
WIRE 112 176 112 160
WIRE 208 176 208 80
WIRE 208 176 112 176
WIRE 112 192 112 176
WIRE -32 288 -32 240
WIRE 112 288 112 272
WIRE 544 288 544 192
WIRE 640 288 640 208
FLAG 112 288 0
FLAG 368 144 0
FLAG 368 -80 Vdd
FLAG -32 112 Vdd
FLAG -32 288 0
FLAG 544 288 0
FLAG 640 288 0
SYMBOL voltage 112 64 R0
SYMATTR InstName V1
SYMBOL voltage 112 176 R0
WINDOW 123 0 0 Left 2
WINDOW 39 0 0 Left 2
SYMATTR InstName V2
SYMATTR Value 0.55
SYMBOL res 656 224 R180
WINDOW 0 36 76 Left 2
WINDOW 3 36 40 Left 2
SYMATTR InstName R1
SYMATTR Value 2.5K
SYMBOL cap 560 192 R180
WINDOW 0 24 56 Left 2
WINDOW 3 24 8 Left 2
SYMATTR InstName C1
SYMATTR Value 120p
SYMBOL coursework 368 48 R0
SYMATTR InstName X1
SYMBOL voltage -32 144 R0
WINDOW 123 0 0 Left 2
WINDOW 39 0 0 Left 2
SYMATTR InstName V3
SYMATTR Value 1.8
TEXT -66 312 Left 2 !.dc V1 -10m +10m 
