Version 4
SHEET 1 880 816
WIRE 368 -80 -32 -80
WIRE 368 -32 368 -80
WIRE 288 16 112 16
WIRE 464 48 448 48
WIRE 544 48 464 48
WIRE 288 80 240 80
WIRE 112 96 112 16
WIRE 544 128 544 48
WIRE 640 128 640 48
WIRE 368 144 368 128
WIRE -32 160 -32 -80
WIRE 240 176 240 80
WIRE 464 176 464 48
WIRE 464 176 240 176
WIRE 112 192 112 176
WIRE -32 288 -32 240
WIRE 112 288 112 272
WIRE 544 288 544 192
WIRE 640 288 640 208
WIRE 112 384 112 368
WIRE 112 480 112 464
WIRE 112 576 112 560
WIRE 112 672 112 656
FLAG 112 672 0
FLAG 368 144 0
FLAG -32 288 0
FLAG 544 288 0
FLAG 640 288 0
SYMBOL voltage 112 80 R0
WINDOW 123 0 0 Left 2
WINDOW 39 0 0 Left 2
SYMATTR InstName V1
SYMATTR Value PULSE(0 0.1 12.5u 1n 1n 5u 30u)
SYMBOL res 656 224 R180
WINDOW 0 36 76 Left 2
WINDOW 3 36 40 Left 2
SYMATTR InstName R1
SYMATTR Value 2.5K
SYMBOL cap 560 192 R180
WINDOW 0 24 56 Left 2
WINDOW 3 24 8 Left 2
SYMATTR InstName C1
SYMATTR Value 120p
SYMBOL coursework 368 48 R0
SYMATTR InstName X1
SYMBOL voltage -32 144 R0
WINDOW 123 0 0 Left 2
WINDOW 39 0 0 Left 2
SYMATTR InstName V3
SYMATTR Value 1.8V
SYMBOL voltage 112 176 R0
WINDOW 123 0 0 Left 2
WINDOW 39 0 0 Left 2
SYMATTR InstName V2
SYMATTR Value PULSE(0 0.1 10u 1n 1n 10u 30u)
SYMBOL voltage 112 272 R0
WINDOW 123 0 0 Left 2
WINDOW 39 0 0 Left 2
SYMATTR InstName V4
SYMATTR Value PULSE(0 0.1 7.5u 1n 1n 15u 30u)
SYMBOL voltage 112 368 R0
WINDOW 123 0 0 Left 2
WINDOW 39 0 0 Left 2
SYMATTR InstName V5
SYMATTR Value PULSE(0 0.1 5u 1n 1n 20u 30u)
SYMBOL voltage 112 464 R0
WINDOW 123 0 0 Left 2
WINDOW 39 0 0 Left 2
SYMATTR InstName V6
SYMATTR Value PULSE(0 0.1 2.5u 1n 1n 25u 30u)
SYMBOL voltage 112 560 R0
WINDOW 123 0 0 Left 2
WINDOW 39 0 0 Left 2
SYMATTR InstName V7
SYMATTR Value 0.3
TEXT -64 696 Left 2 !.tran 90u
